<routes><route id="0" town="Town01">
    <weather id="HardRainSunset" cloudiness="80.000000" precipitation="60.000000" precipitation_deposits="100.000000" wind_intensity="1.000000" sun_azimuth_angle="0.000000" sun_altitude_angle="15.000000" fog_density="0.000000" fog_distance="0.000000" fog_falloff="0.000000" wetness="0.000000">
      <waypoint x="88.690659" y="1.954690" z="0.0" pitch="0.0" roll="0.0" yaw="359.981323" />
      <waypoint x="88.689362" y="-2.045310" z="0.0" pitch="0.0" roll="0.0" yaw="179.981323" />
    </weather>
  </route>
  <route id="16" town="Town01">
    <weather id="CloudyNoon" cloudiness="80.000000" precipitation="0.000000" precipitation_deposits="0.000000" wind_intensity="0.350000" sun_azimuth_angle="45.000000" sun_altitude_angle="75.000000" fog_density="0.000000" fog_distance="0.000000" fog_falloff="0.000000" wetness="0.000000">
      <waypoint x="181.169754" y="55.488941" z="0.0" pitch="0.0" roll="0.0" yaw="179.993011" />
      <waypoint x="225.419067" y="133.470306" z="0.0" pitch="0.0" roll="0.0" yaw="0.025599" />
    </weather>
  </route>
  <route id="2" town="Town01">
    <weather id="WetCloudyNight" cloudiness="90.000000" precipitation="0.000000" precipitation_deposits="50.000000" wind_intensity="0.350000" sun_azimuth_angle="225.000000" sun_altitude_angle="-80.000000" fog_density="0.000000" fog_distance="0.000000" fog_falloff="0.000000" wetness="0.000000">
      <waypoint x="287.419098" y="133.498001" z="0.0" pitch="0.0" roll="0.0" yaw="0.025599" />
      <waypoint x="338.894897" y="8.318978" z="0.0" pitch="0.0" roll="0.0" yaw="-89.965363" />
    </weather>
  </route>
  <route id="3" town="Town01">
    <weather id="CloudyNoon" cloudiness="80.000000" precipitation="0.000000" precipitation_deposits="0.000000" wind_intensity="0.350000" sun_azimuth_angle="45.000000" sun_altitude_angle="75.000000" fog_density="0.000000" fog_distance="0.000000" fog_falloff="0.000000" wetness="0.000000">
      <waypoint x="121.420174" y="195.142517" z="0.0" pitch="0.0" roll="0.0" yaw="180.004654" />
      <waypoint x="213.419083" y="133.464935" z="0.0" pitch="0.0" roll="0.0" yaw="0.025599" />
    </weather>
  </route>
  <route id="4" town="Town01">
    <weather id="HardRainNoon" cloudiness="90.000000" precipitation="60.000000" precipitation_deposits="100.000000" wind_intensity="1.000000" sun_azimuth_angle="90.000000" sun_altitude_angle="75.000000" fog_density="0.000000" fog_distance="0.000000" fog_falloff="0.000000" wetness="0.000000">
      <waypoint x="92.393692" y="155.839706" z="0.0" pitch="0.0" roll="0.0" yaw="269.991272" />
      <waypoint x="137.389771" y="55.494274" z="0.0" pitch="0.0" roll="0.0" yaw="179.993011" />
    </weather>
  </route>
  <route id="19" town="Town01">
    <weather id="WetNight" cloudiness="20.000000" precipitation="0.000000" precipitation_deposits="50.000000" wind_intensity="0.350000" sun_azimuth_angle="225.000000" sun_altitude_angle="-80.000000" fog_density="0.000000" fog_distance="0.000000" fog_falloff="0.000000" wetness="0.000000">
      <waypoint x="139.420181" y="195.143967" z="0.0" pitch="0.0" roll="0.0" yaw="180.004654" />
      <waypoint x="92.390350" y="133.839691" z="0.0" pitch="0.0" roll="0.0" yaw="269.991272" />
    </weather>
  </route>
  <route id="6" town="Town01">
    <weather id="CloudySunset" cloudiness="80.000000" precipitation="0.000000" precipitation_deposits="0.000000" wind_intensity="0.350000" sun_azimuth_angle="270.000000" sun_altitude_angle="15.000000" fog_density="0.000000" fog_distance="0.000000" fog_falloff="0.000000" wetness="0.000000">
      <waypoint x="92.823952" y="51.465080" z="0.0" pitch="0.0" roll="0.0" yaw="-112.733887" />
      <waypoint x="78.011063" y="326.576416" z="0.0" pitch="0.0" roll="0.0" yaw="180.030701" />
    </weather>
  </route>
  <route id="7" town="Town01">
    <weather id="MidRainyNoon" cloudiness="80.000000" precipitation="30.000000" precipitation_deposits="50.000000" wind_intensity="0.400000" sun_azimuth_angle="0.000000" sun_altitude_angle="75.000000" fog_density="0.000000" fog_distance="0.000000" fog_falloff="0.000000" wetness="0.000000">
      <waypoint x="142.960220" y="-2.045744" z="0.0" pitch="0.0" roll="0.0" yaw="-179.993881" />
      <waypoint x="145.419083" y="133.434555" z="0.0" pitch="0.0" roll="0.0" yaw="0.025599" />
    </weather>
  </route>
  <route id="8" town="Town01">
    <weather id="MidRainyNoon" cloudiness="80.000000" precipitation="30.000000" precipitation_deposits="50.000000" wind_intensity="0.400000" sun_azimuth_angle="0.000000" sun_altitude_angle="75.000000" fog_density="0.000000" fog_distance="0.000000" fog_falloff="0.000000" wetness="0.000000">
      <waypoint x="177.620193" y="326.597900" z="0.0" pitch="0.0" roll="0.0" yaw="180.006119" />
      <waypoint x="103.419838" y="199.141052" z="0.0" pitch="0.0" roll="0.0" yaw="0.004656" />
    </weather>
  </route>
  <route id="23" town="Town01">
    <weather id="HardRainNight" cloudiness="90.000000" precipitation="60.000000" precipitation_deposits="100.000000" wind_intensity="1.000000" sun_azimuth_angle="225.000000" sun_altitude_angle="-80.000000" fog_density="0.000000" fog_distance="0.000000" fog_falloff="0.000000" wetness="0.000000">
      <waypoint x="275.419098" y="133.492645" z="0.0" pitch="0.0" roll="0.0" yaw="0.025599" />
      <waypoint x="392.362366" y="24.537628" z="0.0" pitch="0.0" roll="0.0" yaw="90.068764" />
    </weather>
  </route>
  <route id="24" town="Town01">
    <weather id="SoftRainNight" cloudiness="90.000000" precipitation="15.000000" precipitation_deposits="50.000000" wind_intensity="0.350000" sun_azimuth_angle="270.000000" sun_altitude_angle="-80.000000" fog_density="0.000000" fog_distance="0.000000" fog_falloff="0.000000" wetness="0.000000">
      <waypoint x="338.813812" y="142.581161" z="0.0" pitch="0.0" roll="0.0" yaw="270.034607" />
      <waypoint x="191.420914" y="129.455109" z="0.0" pitch="0.0" roll="0.0" yaw="180.025604" />
    </weather>
  </route>
  <route id="11" town="Town01">
    <weather id="WetNight" cloudiness="20.000000" precipitation="0.000000" precipitation_deposits="50.000000" wind_intensity="0.350000" sun_azimuth_angle="225.000000" sun_altitude_angle="-80.000000" fog_density="0.000000" fog_distance="0.000000" fog_falloff="0.000000" wetness="0.000000">
      <waypoint x="338.745819" y="255.161118" z="0.0" pitch="0.0" roll="0.0" yaw="270.034607" />
      <waypoint x="340.144867" y="4.007700" z="0.0" pitch="0.0" roll="0.0" yaw="-46.989243" />
    </weather>
  </route>
  <route id="12" town="Town01">
    <weather id="SoftRainSunset" cloudiness="90.000000" precipitation="15.000000" precipitation_deposits="50.000000" wind_intensity="0.350000" sun_azimuth_angle="270.000000" sun_altitude_angle="15.000000" fog_density="0.000000" fog_distance="0.000000" fog_falloff="0.000000" wetness="0.000000">
      <waypoint x="92.411095" y="270.329712" z="0.0" pitch="0.0" roll="0.0" yaw="269.991272" />
      <waypoint x="69.379364" y="-2.039017" z="0.0" pitch="0.0" roll="0.0" yaw="179.981323" />
    </weather>
  </route>
  <route id="13" town="Town01">
    <weather id="WetSunset" cloudiness="20.000000" precipitation="0.000000" precipitation_deposits="50.000000" wind_intensity="0.350000" sun_azimuth_angle="270.000000" sun_altitude_angle="15.000000" fog_density="0.000000" fog_distance="0.000000" fog_falloff="0.000000" wetness="0.000000">
      <waypoint x="327.610535" y="129.515976" z="0.0" pitch="0.0" roll="0.0" yaw="-179.974396" />
      <waypoint x="338.630737" y="5.738419" z="0.0" pitch="0.0" roll="0.0" yaw="-103.580780" />
    </weather>
  </route>
  <route id="14" town="Town01">
    <weather id="HardRainSunset" cloudiness="80.000000" precipitation="60.000000" precipitation_deposits="100.000000" wind_intensity="1.000000" sun_azimuth_angle="0.000000" sun_altitude_angle="15.000000" fog_density="0.000000" fog_distance="0.000000" fog_falloff="0.000000" wetness="0.000000">
      <waypoint x="338.740967" y="263.161163" z="0.0" pitch="0.0" roll="0.0" yaw="270.034607" />
      <waypoint x="338.817413" y="136.581161" z="0.0" pitch="0.0" roll="0.0" yaw="270.034607" />
    </weather>
  </route>
  <route id="15" town="Town01">
    <weather id="WetSunset" cloudiness="20.000000" precipitation="0.000000" precipitation_deposits="50.000000" wind_intensity="0.350000" sun_azimuth_angle="270.000000" sun_altitude_angle="15.000000" fog_density="0.000000" fog_distance="0.000000" fog_falloff="0.000000" wetness="0.000000">
      <waypoint x="90.644714" y="59.323166" z="0.0" pitch="0.0" roll="0.0" yaw="129.583725" />
      <waypoint x="88.410492" y="266.330322" z="0.0" pitch="0.0" roll="0.0" yaw="89.991280" />
    </weather>
  </route>
  <route id="16" town="Town01">
    <weather id="CloudyNoon" cloudiness="80.000000" precipitation="0.000000" precipitation_deposits="0.000000" wind_intensity="0.350000" sun_azimuth_angle="45.000000" sun_altitude_angle="75.000000" fog_density="0.000000" fog_distance="0.000000" fog_falloff="0.000000" wetness="0.000000">
      <waypoint x="181.169754" y="55.488941" z="0.0" pitch="0.0" roll="0.0" yaw="179.993011" />
      <waypoint x="225.419067" y="133.470306" z="0.0" pitch="0.0" roll="0.0" yaw="0.025599" />
    </weather>
  </route>
  <route id="17" town="Town01">
    <weather id="ClearSunset" cloudiness="15.000000" precipitation="0.000000" precipitation_deposits="0.000000" wind_intensity="0.350000" sun_azimuth_angle="45.000000" sun_altitude_angle="15.000000" fog_density="0.000000" fog_distance="0.000000" fog_falloff="0.000000" wetness="0.000000">
      <waypoint x="28.008924" y="330.549622" z="0.0" pitch="0.0" roll="0.0" yaw="0.030693" />
      <waypoint x="92.392479" y="147.839706" z="0.0" pitch="0.0" roll="0.0" yaw="269.991272" />
    </weather>
  </route>
  <route id="37" town="Town01">
    <weather id="ClearSunset" cloudiness="15.000000" precipitation="0.000000" precipitation_deposits="0.000000" wind_intensity="0.350000" sun_azimuth_angle="45.000000" sun_altitude_angle="15.000000" fog_density="0.000000" fog_distance="0.000000" fog_falloff="0.000000" wetness="0.000000">
      <waypoint x="319.628113" y="1.985490" z="0.0" pitch="0.0" roll="0.0" yaw="0.030457" />
      <waypoint x="392.316864" y="226.540405" z="0.0" pitch="0.0" roll="0.0" yaw="89.987915" />
    </weather>
  </route>
  <route id="19" town="Town01">
    <weather id="WetNight" cloudiness="20.000000" precipitation="0.000000" precipitation_deposits="50.000000" wind_intensity="0.350000" sun_azimuth_angle="225.000000" sun_altitude_angle="-80.000000" fog_density="0.000000" fog_distance="0.000000" fog_falloff="0.000000" wetness="0.000000">
      <waypoint x="139.420181" y="195.143967" z="0.0" pitch="0.0" roll="0.0" yaw="180.004654" />
      <waypoint x="92.390350" y="133.839691" z="0.0" pitch="0.0" roll="0.0" yaw="269.991272" />
    </weather>
  </route>
  <route id="20" town="Town01">
    <weather id="WetCloudyNoon" cloudiness="90.000000" precipitation="0.000000" precipitation_deposits="50.000000" wind_intensity="0.350000" sun_azimuth_angle="180.000000" sun_altitude_angle="75.000000" fog_density="0.000000" fog_distance="0.000000" fog_falloff="0.000000" wetness="0.000000">
      <waypoint x="88.386139" y="106.150314" z="0.0" pitch="0.0" roll="0.0" yaw="89.991280" />
      <waypoint x="211.419815" y="199.149826" z="0.0" pitch="0.0" roll="0.0" yaw="0.004656" />
    </weather>
  </route>
  <route id="21" town="Town01">
    <weather id="SoftRainSunset" cloudiness="90.000000" precipitation="15.000000" precipitation_deposits="50.000000" wind_intensity="0.350000" sun_azimuth_angle="270.000000" sun_altitude_angle="15.000000" fog_density="0.000000" fog_distance="0.000000" fog_falloff="0.000000" wetness="0.000000">
      <waypoint x="88.386444" y="108.150307" z="0.0" pitch="0.0" roll="0.0" yaw="89.991280" />
      <waypoint x="332.082855" y="134.787018" z="0.0" pitch="0.0" roll="0.0" yaw="36.722546" />
    </weather>
  </route>
  <route id="22" town="Town01">
    <weather id="HardRainNoon" cloudiness="90.000000" precipitation="60.000000" precipitation_deposits="100.000000" wind_intensity="1.000000" sun_azimuth_angle="90.000000" sun_altitude_angle="75.000000" fog_density="0.000000" fog_distance="0.000000" fog_falloff="0.000000" wetness="0.000000">
      <waypoint x="92.411705" y="274.329712" z="0.0" pitch="0.0" roll="0.0" yaw="269.991272" />
      <waypoint x="223.419083" y="133.469406" z="0.0" pitch="0.0" roll="0.0" yaw="0.025599" />
    </weather>
  </route>
  <route id="23" town="Town01">
    <weather id="HardRainNight" cloudiness="90.000000" precipitation="60.000000" precipitation_deposits="100.000000" wind_intensity="1.000000" sun_azimuth_angle="225.000000" sun_altitude_angle="-80.000000" fog_density="0.000000" fog_distance="0.000000" fog_falloff="0.000000" wetness="0.000000">
      <waypoint x="275.419098" y="133.492645" z="0.0" pitch="0.0" roll="0.0" yaw="0.025599" />
      <waypoint x="392.362366" y="24.537628" z="0.0" pitch="0.0" roll="0.0" yaw="90.068764" />
    </weather>
  </route>
  <route id="24" town="Town01">
    <weather id="SoftRainNight" cloudiness="90.000000" precipitation="15.000000" precipitation_deposits="50.000000" wind_intensity="0.350000" sun_azimuth_angle="270.000000" sun_altitude_angle="-80.000000" fog_density="0.000000" fog_distance="0.000000" fog_falloff="0.000000" wetness="0.000000">
      <waypoint x="338.813812" y="142.581161" z="0.0" pitch="0.0" roll="0.0" yaw="270.034607" />
      <waypoint x="191.420914" y="129.455109" z="0.0" pitch="0.0" roll="0.0" yaw="180.025604" />
    </weather>
  </route>
  <route id="25" town="Town01">
    <weather id="MidRainSunset" cloudiness="80.000000" precipitation="30.000000" precipitation_deposits="50.000000" wind_intensity="0.400000" sun_azimuth_angle="270.000000" sun_altitude_angle="15.000000" fog_density="0.000000" fog_distance="0.000000" fog_falloff="0.000000" wetness="0.000000">
      <waypoint x="92.809273" y="191.568359" z="0.0" pitch="0.0" roll="0.0" yaw="-113.446259" />
      <waypoint x="92.384315" y="94.149704" z="0.0" pitch="0.0" roll="0.0" yaw="269.991272" />
    </weather>
  </route>
  <route id="26" town="Town01">
    <weather id="WetCloudyNight" cloudiness="90.000000" precipitation="0.000000" precipitation_deposits="50.000000" wind_intensity="0.350000" sun_azimuth_angle="225.000000" sun_altitude_angle="-80.000000" fog_density="0.000000" fog_distance="0.000000" fog_falloff="0.000000" wetness="0.000000">
      <waypoint x="94.463898" y="130.082718" z="0.0" pitch="0.0" roll="0.0" yaw="158.768646" />
      <waypoint x="92.379150" y="60.149689" z="0.0" pitch="0.0" roll="0.0" yaw="-90.008698" />
    </weather>
  </route>
  <route id="35" town="Town01">
    <weather id="SoftRainNight" cloudiness="90.000000" precipitation="15.000000" precipitation_deposits="50.000000" wind_intensity="0.350000" sun_azimuth_angle="270.000000" sun_altitude_angle="-80.000000" fog_density="0.000000" fog_distance="0.000000" fog_falloff="0.000000" wetness="0.000000">
      <waypoint x="158.066544" y="11.022422" z="0.0" pitch="0.0" roll="0.0" yaw="-89.930359" />
      <waypoint x="225.170242" y="59.483578" z="0.0" pitch="0.0" roll="0.0" yaw="-0.006982" />
    </weather>
  </route>
  <route id="28" town="Town01">
    <weather id="WetCloudyNight" cloudiness="90.000000" precipitation="0.000000" precipitation_deposits="50.000000" wind_intensity="0.350000" sun_azimuth_angle="225.000000" sun_altitude_angle="-80.000000" fog_density="0.000000" fog_distance="0.000000" fog_falloff="0.000000" wetness="0.000000">
      <waypoint x="338.567657" y="202.933929" z="0.0" pitch="0.0" roll="0.0" yaw="-102.163605" />
      <waypoint x="181.169754" y="55.488941" z="0.0" pitch="0.0" roll="0.0" yaw="179.993011" />
    </weather>
  </route>
  <route id="29" town="Town01">
    <weather id="WetSunset" cloudiness="20.000000" precipitation="0.000000" precipitation_deposits="50.000000" wind_intensity="0.350000" sun_azimuth_angle="270.000000" sun_altitude_angle="15.000000" fog_density="0.000000" fog_distance="0.000000" fog_falloff="0.000000" wetness="0.000000">
      <waypoint x="88.393997" y="157.840302" z="0.0" pitch="0.0" roll="0.0" yaw="89.991280" />
      <waypoint x="325.669861" y="199.159119" z="0.0" pitch="0.0" roll="0.0" yaw="0.004656" />
    </weather>
  </route>
  <route id="36" town="Town01">
    <weather id="MidRainyNoon" cloudiness="80.000000" precipitation="30.000000" precipitation_deposits="50.000000" wind_intensity="0.400000" sun_azimuth_angle="0.000000" sun_altitude_angle="75.000000" fog_density="0.000000" fog_distance="0.000000" fog_falloff="0.000000" wetness="0.000000">
      <waypoint x="338.813141" y="143.671173" z="0.0" pitch="0.0" roll="0.0" yaw="270.034607" />
      <waypoint x="392.297577" y="78.537582" z="0.0" pitch="0.0" roll="0.0" yaw="90.068764" />
    </weather>
  </route>
  <route id="39" town="Town01">
    <weather id="CloudyNoon" cloudiness="80.000000" precipitation="0.000000" precipitation_deposits="0.000000" wind_intensity="0.350000" sun_azimuth_angle="45.000000" sun_altitude_angle="75.000000" fog_density="0.000000" fog_distance="0.000000" fog_falloff="0.000000" wetness="0.000000">
      <waypoint x="154.137390" y="50.496269" z="0.0" pitch="0.0" roll="0.0" yaw="81.342621" />
      <waypoint x="333.583984" y="126.738998" z="0.0" pitch="0.0" roll="0.0" yaw="127.633186" />
    </weather>
  </route>
  <route id="32" town="Town01">
    <weather id="ClearNoon" cloudiness="15.000000" precipitation="0.000000" precipitation_deposits="0.000000" wind_intensity="0.350000" sun_azimuth_angle="0.000000" sun_altitude_angle="75.000000" fog_density="0.000000" fog_distance="0.000000" fog_falloff="0.000000" wetness="0.000000">
      <waypoint x="338.848541" y="85.031197" z="0.0" pitch="0.0" roll="0.0" yaw="270.034607" />
      <waypoint x="392.328766" y="52.537601" z="0.0" pitch="0.0" roll="0.0" yaw="90.068764" />
    </weather>
  </route>
  <route id="40" town="Town01">
    <weather id="CloudyNoon" cloudiness="80.000000" precipitation="0.000000" precipitation_deposits="0.000000" wind_intensity="0.350000" sun_azimuth_angle="45.000000" sun_altitude_angle="75.000000" fog_density="0.000000" fog_distance="0.000000" fog_falloff="0.000000" wetness="0.000000">
      <waypoint x="338.869446" y="50.421200" z="0.0" pitch="0.0" roll="0.0" yaw="-89.965363" />
      <waypoint x="154.803436" y="52.883114" z="0.0" pitch="0.0" roll="0.0" yaw="67.474503" />
    </weather>
  </route>
  <route id="34" town="Town01">
    <weather id="WetSunset" cloudiness="20.000000" precipitation="0.000000" precipitation_deposits="50.000000" wind_intensity="0.350000" sun_azimuth_angle="270.000000" sun_altitude_angle="15.000000" fog_density="0.000000" fog_distance="0.000000" fog_falloff="0.000000" wetness="0.000000">
      <waypoint x="87.641060" y="326.581543" z="0.0" pitch="0.0" roll="0.0" yaw="180.030701" />
      <waypoint x="121.390244" y="59.496223" z="0.0" pitch="0.0" roll="0.0" yaw="-0.006982" />
    </weather>
  </route>
  <route id="35" town="Town01">
    <weather id="SoftRainNight" cloudiness="90.000000" precipitation="15.000000" precipitation_deposits="50.000000" wind_intensity="0.350000" sun_azimuth_angle="270.000000" sun_altitude_angle="-80.000000" fog_density="0.000000" fog_distance="0.000000" fog_falloff="0.000000" wetness="0.000000">
      <waypoint x="158.066544" y="11.022422" z="0.0" pitch="0.0" roll="0.0" yaw="-89.930359" />
      <waypoint x="225.170242" y="59.483578" z="0.0" pitch="0.0" roll="0.0" yaw="-0.006982" />
    </weather>
  </route>
  <route id="36" town="Town01">
    <weather id="MidRainyNoon" cloudiness="80.000000" precipitation="30.000000" precipitation_deposits="50.000000" wind_intensity="0.400000" sun_azimuth_angle="0.000000" sun_altitude_angle="75.000000" fog_density="0.000000" fog_distance="0.000000" fog_falloff="0.000000" wetness="0.000000">
      <waypoint x="338.813141" y="143.671173" z="0.0" pitch="0.0" roll="0.0" yaw="270.034607" />
      <waypoint x="392.297577" y="78.537582" z="0.0" pitch="0.0" roll="0.0" yaw="90.068764" />
    </weather>
  </route>
  <route id="37" town="Town01">
    <weather id="ClearSunset" cloudiness="15.000000" precipitation="0.000000" precipitation_deposits="0.000000" wind_intensity="0.350000" sun_azimuth_angle="45.000000" sun_altitude_angle="15.000000" fog_density="0.000000" fog_distance="0.000000" fog_falloff="0.000000" wetness="0.000000">
      <waypoint x="319.628113" y="1.985490" z="0.0" pitch="0.0" roll="0.0" yaw="0.030457" />
      <waypoint x="392.316864" y="226.540405" z="0.0" pitch="0.0" roll="0.0" yaw="89.987915" />
    </weather>
  </route>
  <route id="38" town="Town01">
    <weather id="MidRainyNoon" cloudiness="80.000000" precipitation="30.000000" precipitation_deposits="50.000000" wind_intensity="0.400000" sun_azimuth_angle="0.000000" sun_altitude_angle="75.000000" fog_density="0.000000" fog_distance="0.000000" fog_falloff="0.000000" wetness="0.000000">
      <waypoint x="156.022156" y="55.040741" z="0.0" pitch="0.0" roll="0.0" yaw="53.606384" />
      <waypoint x="215.419083" y="133.465836" z="0.0" pitch="0.0" roll="0.0" yaw="0.025599" />
    </weather>
  </route>
  <route id="39" town="Town01">
    <weather id="CloudyNoon" cloudiness="80.000000" precipitation="0.000000" precipitation_deposits="0.000000" wind_intensity="0.350000" sun_azimuth_angle="45.000000" sun_altitude_angle="75.000000" fog_density="0.000000" fog_distance="0.000000" fog_falloff="0.000000" wetness="0.000000">
      <waypoint x="154.137390" y="50.496269" z="0.0" pitch="0.0" roll="0.0" yaw="81.342621" />
      <waypoint x="333.583984" y="126.738998" z="0.0" pitch="0.0" roll="0.0" yaw="127.633186" />
    </weather>
  </route>
  <route id="40" town="Town01">
    <weather id="CloudyNoon" cloudiness="80.000000" precipitation="0.000000" precipitation_deposits="0.000000" wind_intensity="0.350000" sun_azimuth_angle="45.000000" sun_altitude_angle="75.000000" fog_density="0.000000" fog_distance="0.000000" fog_falloff="0.000000" wetness="0.000000">
      <waypoint x="338.869446" y="50.421200" z="0.0" pitch="0.0" roll="0.0" yaw="-89.965363" />
      <waypoint x="154.803436" y="52.883114" z="0.0" pitch="0.0" roll="0.0" yaw="67.474503" />
    </weather>
  </route>
  <route id="41" town="Town01">
    <weather id="ClearNoon" cloudiness="15.000000" precipitation="0.000000" precipitation_deposits="0.000000" wind_intensity="0.350000" sun_azimuth_angle="0.000000" sun_altitude_angle="75.000000" fog_density="0.000000" fog_distance="0.000000" fog_falloff="0.000000" wetness="0.000000">
      <waypoint x="88.384315" y="94.150307" z="0.0" pitch="0.0" roll="0.0" yaw="89.991280" />
      <waypoint x="219.419083" y="133.467621" z="0.0" pitch="0.0" roll="0.0" yaw="0.025599" />
    </weather>
  </route>
  </routes>